 &time_control
 run_days                            = 0,
 run_hours                           = 12,
 run_minutes                         = 0,
 run_seconds                         = 0,
 start_year                          = 2007,
 start_month                         = 06,
 start_day                           = 1,
 start_hour                          = 5,
 start_minute                        = 00,
 start_second                        = 00,
 end_year                            = 2007,
 end_month                           = 06,
 end_day                             = 2,
 end_hour                            = 5,
 end_minute                          = 00,
 end_second                          = 00,
 history_interval                    = 1,
 frames_per_outfile                  = 1000,
 restart                             = .false.,
 restart_interval                    = 360000,
 io_form_history                     = 2
 io_form_restart                     = 2
 io_form_input                       = 2
 io_form_boundary                    = 2
 debug_level                         = 0
 /

 &domains
 time_step                           = 60,
 time_step_fract_num                 = 0,
 time_step_fract_den                 = 1,
 max_dom                             = 1,
 s_we                                = 1,
 e_we                                = 202,
 s_sn                                = 1,
 e_sn                                = 3,
 s_vert                              = 1,
 e_vert                              = 51,
 dx                                  = 2000,
 dy                                  = 2000,
 ztop                                = 20000.,
 eta_levels                          = 1.0000000,   0.9946468,   0.9889215,   0.9828001,   0.9762576,   0.9692677,   0.9618027,   0.9538340,   0.9453315,   0.9362642,   0.9265997,   0.9163048,   0.9053455,   0.8936867,   0.8812929,   0.8681283,   0.8541568,   0.8393426,   0.8236505,   0.8070461,   0.7894967,   0.7709715,   0.7514425,   0.7308851,   0.7092789,   0.6866087,   0.6628655,   0.6380474,   0.6121613,   0.5852233,   0.5572610,   0.5283139,   0.4984354,   0.4676941,   0.4361746,   0.4039792,   0.3712285,   0.3380622,   0.3046394,   0.2711385,   0.2377561,   0.2047062,   0.1723616,   0.1428810,   0.1160447,   0.0916478,   0.0694992,   0.0494207,   0.0312464,   0.0148220,   0.0000000

 /

 &physics
 wisotope = T, 
 mp_physics                          = 108,
 ra_lw_physics                       = 1,
 ra_sw_physics                       = 1,
 radt                                = 5,
 sf_sfclay_physics                   = 2,
 sf_surface_physics                  = 2,
 bl_pbl_physics                      = 2,
 bldt                                = 0,
 tracer_pblmix                       = 1
 cu_physics                          = 0,
 cudt                                = 0,
 num_soil_layers                     = 4,
 /

 &fdda
 /

 &dynamics
 rk_ord                              = 3,
 diff_opt                            = 2,      2,      2,
 km_opt                              = 4,      4,      4,
 damp_opt                            = 2,
 dampcoef                            = .003,
 zdamp                               = 5000.,
 khdif                               = 300,
 kvdif                               = 1,
 smdiv                               = 0.1,
 emdiv                               = 0.01,
 epssm                               = 0.1,
 time_step_sound                     = 18,
 h_mom_adv_order                     = 5,
 v_mom_adv_order                     = 3,
 h_sca_adv_order                     = 5,
 v_sca_adv_order                     = 3,
 tracer_opt                          = 0,
 mix_full_fields                     = .true.,
 non_hydrostatic                     = .true.,
 /

 &bdy_control
 periodic_x                          = .true.,
 symmetric_xs                        = .false.,
 symmetric_xe                        = .false.,
 open_xs                             = .false., 
 open_xe                             = .false.,
 periodic_y                          = .true.,
 symmetric_ys                        = .false.,
 symmetric_ye                        = .false.,
 open_ys                             = .false.,
 open_ye                             = .false.,
 /

 &grib2
 /

 &namelist_quilt
 nio_tasks_per_group = 0,
 nio_groups = 1,
 /
