 &time_control
 run_days                            = 0,
 run_hours                           = 120,
 run_minutes                         = 0,
 run_seconds                         = 0,
 start_year                          = 2016,2016,2016,2016,2016,2016,
 start_month                         = 01,01,01,01,01,01,
 start_day                           = 19,19,19,19,19,19,
 start_hour                          = 12,12,12,12,12,12,
 start_minute                        = 00,   00,   00,  00,  00,  00,
 start_second                        = 00,   00,   00,  00,  00,  00,
 end_year                            = 2016,2016,2016,2016,2016,2016,
 end_month                           = 01,01,01,01,01,01,
 end_day                             = 24,24,21,21,21,21,
 end_hour                            = 12,12,03,03,03,03,
 end_minute                          = 00,   00,    5,   5,   5,   5,
 end_second                          = 00,   00,   00,  00,  00,  00,
 interval_seconds                    = 21600
 input_from_file                     = .true.,.true.,.true., .true., .true., .true.
 fine_input_stream                   =    0,     0,     2,      2,      2,      2
 io_form_auxinput2                   = 2 
 history_interval                    = 180,180,60,60,60,60,
 bdy_inname                          = "wrfbdy_d<domain>_<date>"
 history_outname                        = "split_d<domain>/wrfout_d<domain>_<date>"
 frames_per_outfile                  = 1, 1, 1, 1, 1, 1,
 restart                             = .false.,
 restart_interval                    = 1440000,
 io_form_history                     = 102
 io_form_restart                     = 102
 io_form_input                       = 2
 io_form_boundary                    = 2
 debug_level                         = 0
 adjust_output_times                 = .true.
 iofields_filename                   = "/amps/home/ampsrt/amps/con30_3.7.1/wrf/remove_io.txt", "/amps/home/ampsrt/amps/con30_3.7.1/wrf/remove_io.txt"
/
 &domains
 use_adaptive_time_step = .true.
 step_to_output_time    = .true.
 target_cfl = 1.05,1.05,1.05,1.05,1.05,1.05
 max_step_increase_pct = 5,51,51,51,51,51
 ! starting_time_step = 180,60,20,20,10,20, ! 90,30,10,10,3,10,
 starting_time_step = 90,30,10,10,3,10,
 max_time_step = 225,90,22,35,7,24,
 ! min_time_step = 

 time_step                           = 144,
 time_step_fract_num                 = 0,
 time_step_fract_den                 = 1,
 max_dom                             = 6
 e_we                                = 330,667,538,256,613,520,
 e_sn                                = 436,628,826,256,718,454,
 p_top_requested  = 1000
 hypsometric_opt                     = 2,

 e_vert = 61,61,61,61,61,61
 eta_levels =   1.0000, 0.9968, 0.9919, 0.9856, 0.9779, 
                0.9688, 0.9583, 0.9464, 0.9331, 0.9184, 
                0.9023, 0.8849, 0.8662, 0.8462, 0.8250, 
                0.8026, 0.7791, 0.7546, 0.7292, 0.7030,
                0.6761, 0.6486, 0.6205, 0.5919, 0.5629,
                0.5336, 0.5041, 0.4745, 0.4449, 0.4154,
                0.3861, 0.3572, 0.3289, 0.3014, 0.2749, 
                0.2496, 0.2256, 0.2030, 0.1819, 0.1622,
                0.1439, 0.1271, 0.1118, 0.0979, 0.08534,
                0.07405, 0.06387, 0.05472, 0.04653, 0.03925, 
                0.03284, 0.02721, 0.02227, 0.01794, 0.01417,
                0.01089, 0.00804, 0.00558, 0.00345, 0.00160,
                0.0000 
 !
 ! Try some stuff with the vertical interpolation
 !
 use_levels_below_ground = .false.,
 ! zap_close_levels        = 500,
 ! lowest_lev_from_sfc       = .true.,
 lagrange_order          = 1
 interp_theta            = .TRUE.
 force_sfc_in_vinterp    = 0


 max_ts_locs                          = 250,
 num_metgrid_levels                  = 27,
 dx                                  = 30000.0000,10000.0000,3333.3330,3333.3330,1111.1110,3333.3330,
 dy                                  = 30000.0000,10000.0000,3333.3330,3333.3330,1111.1110,3333.3330,
 grid_allowed                        = .true., .true., .true., .false., .true., .true.,
 grid_id                             = 1,     2,     3,    4,    5,    6,
 parent_id                           = 0,     1,     2,    2,    3,    2,
 i_parent_start                      = 1,53,250,297,76,450,
 j_parent_start                      = 1,114,235,244,406,103,
 parent_grid_ratio                   = 1,3,3,3,3,3,
 parent_time_step_ratio              = 1,2,3,3,3,3,
 feedback                            = 1,
 smooth_option                       = 1
 /

 &dfi_control
/

 &physics
 fractional_seaice                   = 1
 seaice_threshold                    = 0.0
 seaice_albedo_opt                   = 0
 seaice_albedo_default               = 0.80
 seaice_thickness_opt                = 0
 seaice_thickness_default            = 3.0
 seaice_snowdepth_opt                = 0
 seaice_snowdepth_max                = 1.E10
 seaice_snowdepth_min                = 1.E-3
 mp_physics                          = 4,     4,     4,    4,   4,   4,
 ! ra_lw_physics                       = 1,     1,     1,    1,   1,   1,
 ra_lw_physics                       = 4,     4,     4,    4,   4,   4,
 ra_sw_physics                       = 2,     2,     2,    2,   2,   2,
 ! ra_lw_physics                       = 3,     3,     3,    3,   3,   3,
 ! ra_sw_physics                       = 3,     3,     3,    3,   3,   3,
 ! levsiz                              = 59,
 ! paerlev                             = 29,
 ! cam_abs_dim1                        = 4,
 ! cam_abs_dim2                        = 44,
 ! cam_abs_freq_s                      = 21600,
 ! radt                                = 10,    10,    10,  10,  10,  10,
 radt                                = 15,    15,    15,  15,  15,  15,
 sf_sfclay_physics                   = 2,     2,     2,    2,   2,   2,
 sf_surface_physics                  = 2,     2,     2,    2,   2,   2,
 bl_pbl_physics                      = 2,     2,     2,    2,   2,   2,
 bldt                                = 0,     0,     0,    0,   0,   0,
 cu_physics                          = 1,     1,     0,    0,   0,   0,
 cudt                                = 0,     0,     0,    0,   0,   0,
 isfflx                              = 1,
 ifsnow                              = 0,
 icloud                              = 1,
 surface_input_source                = 1,
 num_soil_layers                     = 4,
 sf_urban_physics                    = 0,
 mp_zero_out                         = 0,
 maxiens                             = 1,
 maxens                              = 3,
 maxens2                             = 3,
 maxens3                             = 16,
 ensdim                              = 144,
 slope_rad                           = 0,
 topo_shading                        = 0,
 /

 &fdda
 /

 &dynamics
 rk_ord                              = 3,
 w_damping                           = 1,
 diff_opt                            = 1,
 km_opt                              = 4,
 diff_6th_opt                        = 2,2,2,2,2,2
 diff_6th_factor                     = 0.12,0.12,0.12,0.12,0.12,0.12,
 damp_opt                            = 3,
 base_temp                           = 268.
 base_pres_strat                     = 0.0
 iso_temp                            = 200.0
 base_lapse_strat                    = -12.0
 zdamp                               = 7500.,  7500.,  7500., 7500.,  7500.,  7500.,
 dampcoef                            = 0.21,   0.21,   0.21,  0.21,   0.21,   0.21,
 khdif                               = 0,      0,      0,     0,      0,      0,
 kvdif                               = 0,      0,      0,     0,      0,      0,
 smdiv                               = 0.1,    0.1,    0.1,   0.1,    0.1,    0.1,
 emdiv                               = 0.01,   0.01,   0.01,  0.01,   0.01,   0.01,
 epssm                               = 0.3,    0.3,    0.3,   0.3,    0.3,    0.3,
 non_hydrostatic                     = .true., .true., .true.,.true., .true., .true.,
 time_step_sound                     = 4,      4,      4, 4,      4,      4,
 h_mom_adv_order                     = 5,      5,      5, 5,      5,      5,
 v_mom_adv_order                     = 3,      3,      3, 3,      3,      3,
 h_sca_adv_order                     = 5,      5,      5, 5,      5,      5,
 v_sca_adv_order                     = 3,      3,      3, 3,      3,      3,
 moist_adv_opt                       = 1,      1,      1,      1,      1,      1,
 scalar_adv_opt                      = 1,      1,      1,      1,      1,      1,
 /

 &bdy_control
 spec_bdy_width                      = 5,
 spec_zone                           = 1,
 relax_zone                          = 4,
 specified                           = .true., .false.,.false.,.false.,.false.,.false.,
 periodic_x                          = .false.,.false.,.false.,.false.,.false.,.false.,
 symmetric_xs                        = .false.,.false.,.false.,.false.,.false.,.false.,
 symmetric_xe                        = .false.,.false.,.false.,.false.,.false.,.false.,
 open_xs                             = .false.,.false.,.false.,.false.,.false.,.false.,
 open_xe                             = .false.,.false.,.false.,.false.,.false.,.false.,
 periodic_y                          = .false.,.false.,.false.,.false.,.false.,.false.,
 symmetric_ys                        = .false.,.false.,.false.,.false.,.false.,.false.,
 symmetric_ye                        = .false.,.false.,.false.,.false.,.false.,.false.,
 open_ys                             = .false.,.false.,.false.,.false.,.false.,.false.,
 open_ye                             = .false.,.false.,.false.,.false.,.false.,.false.,
 nested                              = .false., .true., .true., .true., .true., .true.,
 /

 &grib2
 /

 &namelist_quilt
 nio_tasks_per_group = 0,
 nio_groups = 1,
 /
